
---------- Begin Simulation Statistics ----------
sim_seconds                                  1.135213                       # Number of seconds simulated
sim_ticks                                1135213164000                       # Number of ticks simulated
final_tick                               1135213164000                       # Number of ticks from beginning of simulation (restored from checkpoints and never reset)
sim_freq                                 1000000000000                       # Frequency of simulated ticks
host_inst_rate                                 669352                       # Simulator instruction rate (inst/s)
host_op_rate                                  1085442                       # Simulator op (including micro ops) rate (op/s)
host_tick_rate                             1507386942                       # Simulator tick rate (ticks/s)
host_mem_usage                                 663640                       # Number of bytes of host memory used
host_seconds                                   753.10                       # Real time elapsed on the host
sim_insts                                   504088774                       # Number of instructions simulated
sim_ops                                     817446129                       # Number of ops (including micro ops) simulated
system.voltage_domain.voltage                       1                       # Voltage in Volts
system.clk_domain.clock                          1000                       # Clock period in ticks
system.mem_ctrls.pwrStateResidencyTicks::UNDEFINED 1135213164000                       # Cumulative time (in ticks) in various power states
system.mem_ctrls.bytes_read::cpu.inst           22720                       # Number of bytes read from this memory
system.mem_ctrls.bytes_read::cpu.data        24599360                       # Number of bytes read from this memory
system.mem_ctrls.bytes_read::total           24622080                       # Number of bytes read from this memory
system.mem_ctrls.bytes_inst_read::cpu.inst        22720                       # Number of instructions bytes read from this memory
system.mem_ctrls.bytes_inst_read::total         22720                       # Number of instructions bytes read from this memory
system.mem_ctrls.bytes_written::writebacks     22712832                       # Number of bytes written to this memory
system.mem_ctrls.bytes_written::total        22712832                       # Number of bytes written to this memory
system.mem_ctrls.num_reads::cpu.inst              355                       # Number of read requests responded to by this memory
system.mem_ctrls.num_reads::cpu.data           384365                       # Number of read requests responded to by this memory
system.mem_ctrls.num_reads::total              384720                       # Number of read requests responded to by this memory
system.mem_ctrls.num_writes::writebacks        354888                       # Number of write requests responded to by this memory
system.mem_ctrls.num_writes::total             354888                       # Number of write requests responded to by this memory
system.mem_ctrls.bw_read::cpu.inst              20014                       # Total read bandwidth from this memory (bytes/s)
system.mem_ctrls.bw_read::cpu.data           21669375                       # Total read bandwidth from this memory (bytes/s)
system.mem_ctrls.bw_read::total              21689389                       # Total read bandwidth from this memory (bytes/s)
system.mem_ctrls.bw_inst_read::cpu.inst         20014                       # Instruction read bandwidth from this memory (bytes/s)
system.mem_ctrls.bw_inst_read::total            20014                       # Instruction read bandwidth from this memory (bytes/s)
system.mem_ctrls.bw_write::writebacks        20007548                       # Write bandwidth from this memory (bytes/s)
system.mem_ctrls.bw_write::total             20007548                       # Write bandwidth from this memory (bytes/s)
system.mem_ctrls.bw_total::writebacks        20007548                       # Total bandwidth to/from this memory (bytes/s)
system.mem_ctrls.bw_total::cpu.inst             20014                       # Total bandwidth to/from this memory (bytes/s)
system.mem_ctrls.bw_total::cpu.data          21669375                       # Total bandwidth to/from this memory (bytes/s)
system.mem_ctrls.bw_total::total             41696937                       # Total bandwidth to/from this memory (bytes/s)
system.pwrStateResidencyTicks::UNDEFINED 1135213164000                       # Cumulative time (in ticks) in various power states
system.cpu_voltage_domain.voltage                   1                       # Voltage in Volts
system.cpu_clk_domain.clock                       500                       # Clock period in ticks
system.cpu.dtb.walker.pwrStateResidencyTicks::UNDEFINED 1135213164000                       # Cumulative time (in ticks) in various power states
system.cpu.dtb.rdAccesses                   238245988                       # TLB accesses on read requests
system.cpu.dtb.wrAccesses                    64374667                       # TLB accesses on write requests
system.cpu.dtb.rdMisses                          5921                       # TLB misses on read requests
system.cpu.dtb.wrMisses                           999                       # TLB misses on write requests
system.cpu.apic_clk_domain.clock                 8000                       # Clock period in ticks
system.cpu.interrupts.pwrStateResidencyTicks::UNDEFINED 1135213164000                       # Cumulative time (in ticks) in various power states
system.cpu.itb.walker.pwrStateResidencyTicks::UNDEFINED 1135213164000                       # Cumulative time (in ticks) in various power states
system.cpu.itb.rdAccesses                           0                       # TLB accesses on read requests
system.cpu.itb.wrAccesses                   677335213                       # TLB accesses on write requests
system.cpu.itb.rdMisses                             0                       # TLB misses on read requests
system.cpu.itb.wrMisses                            35                       # TLB misses on write requests
system.cpu.workload.numSyscalls                     9                       # Number of system calls
system.cpu.pwrStateResidencyTicks::ON    1135213164000                       # Cumulative time (in ticks) in various power states
system.cpu.numCycles                       2270426328                       # number of cpu cycles simulated
system.cpu.numWorkItemsStarted                      0                       # number of work items this cpu started
system.cpu.numWorkItemsCompleted                    0                       # number of work items this cpu completed
system.cpu.committedInsts                   504088774                       # Number of instructions committed
system.cpu.committedOps                     817446129                       # Number of ops (including micro ops) committed
system.cpu.num_int_alu_accesses             812630010                       # Number of integer alu accesses
system.cpu.num_fp_alu_accesses                   1975                       # Number of float alu accesses
system.cpu.num_vec_alu_accesses                     0                       # Number of vector alu accesses
system.cpu.num_func_calls                     9452832                       # number of times a function call or return occured
system.cpu.num_conditional_control_insts     46565890                       # number of instructions that are conditional controls
system.cpu.num_int_insts                    812630010                       # number of integer instructions
system.cpu.num_fp_insts                          1975                       # number of float instructions
system.cpu.num_vec_insts                            0                       # number of vector instructions
system.cpu.num_int_register_reads          1822855649                       # number of times the integer registers were read
system.cpu.num_int_register_writes          705741308                       # number of times the integer registers were written
system.cpu.num_fp_register_reads                 3787                       # number of times the floating registers were read
system.cpu.num_fp_register_writes                1492                       # number of times the floating registers were written
system.cpu.num_vec_register_reads                   0                       # number of times the vector registers were read
system.cpu.num_vec_register_writes                  0                       # number of times the vector registers were written
system.cpu.num_cc_register_reads            297557775                       # number of times the CC registers were read
system.cpu.num_cc_register_writes           279904588                       # number of times the CC registers were written
system.cpu.num_mem_refs                     302620652                       # number of memory refs
system.cpu.num_load_insts                   238245986                       # Number of load instructions
system.cpu.num_store_insts                   64374666                       # Number of store instructions
system.cpu.num_idle_cycles                          0                       # Number of idle cycles
system.cpu.num_busy_cycles                 2270426328                       # Number of busy cycles
system.cpu.not_idle_fraction                        1                       # Percentage of non-idle cycles
system.cpu.idle_fraction                            0                       # Percentage of idle cycles
system.cpu.Branches                          60772146                       # Number of branches fetched
system.cpu.op_class::No_OpClass               1362109      0.17%      0.17% # Class of executed instruction
system.cpu.op_class::IntAlu                 505014358     61.78%     61.95% # Class of executed instruction
system.cpu.op_class::IntMult                        4      0.00%     61.95% # Class of executed instruction
system.cpu.op_class::IntDiv                   8448046      1.03%     62.98% # Class of executed instruction
system.cpu.op_class::FloatAdd                      10      0.00%     62.98% # Class of executed instruction
system.cpu.op_class::FloatCmp                       0      0.00%     62.98% # Class of executed instruction
system.cpu.op_class::FloatCvt                       0      0.00%     62.98% # Class of executed instruction
system.cpu.op_class::FloatMult                      0      0.00%     62.98% # Class of executed instruction
system.cpu.op_class::FloatMultAcc                   0      0.00%     62.98% # Class of executed instruction
system.cpu.op_class::FloatDiv                       0      0.00%     62.98% # Class of executed instruction
system.cpu.op_class::FloatMisc                      0      0.00%     62.98% # Class of executed instruction
system.cpu.op_class::FloatSqrt                      0      0.00%     62.98% # Class of executed instruction
system.cpu.op_class::SimdAdd                      374      0.00%     62.98% # Class of executed instruction
system.cpu.op_class::SimdAddAcc                     0      0.00%     62.98% # Class of executed instruction
system.cpu.op_class::SimdAlu                       68      0.00%     62.98% # Class of executed instruction
system.cpu.op_class::SimdCmp                        0      0.00%     62.98% # Class of executed instruction
system.cpu.op_class::SimdCvt                      108      0.00%     62.98% # Class of executed instruction
system.cpu.op_class::SimdMisc                     214      0.00%     62.98% # Class of executed instruction
system.cpu.op_class::SimdMult                       0      0.00%     62.98% # Class of executed instruction
system.cpu.op_class::SimdMultAcc                    0      0.00%     62.98% # Class of executed instruction
system.cpu.op_class::SimdShift                    186      0.00%     62.98% # Class of executed instruction
system.cpu.op_class::SimdShiftAcc                   0      0.00%     62.98% # Class of executed instruction
system.cpu.op_class::SimdSqrt                       0      0.00%     62.98% # Class of executed instruction
system.cpu.op_class::SimdFloatAdd                   0      0.00%     62.98% # Class of executed instruction
system.cpu.op_class::SimdFloatAlu                   0      0.00%     62.98% # Class of executed instruction
system.cpu.op_class::SimdFloatCmp                   0      0.00%     62.98% # Class of executed instruction
system.cpu.op_class::SimdFloatCvt                   0      0.00%     62.98% # Class of executed instruction
system.cpu.op_class::SimdFloatDiv                   0      0.00%     62.98% # Class of executed instruction
system.cpu.op_class::SimdFloatMisc                  0      0.00%     62.98% # Class of executed instruction
system.cpu.op_class::SimdFloatMult                  0      0.00%     62.98% # Class of executed instruction
system.cpu.op_class::SimdFloatMultAcc               0      0.00%     62.98% # Class of executed instruction
system.cpu.op_class::SimdFloatSqrt                  0      0.00%     62.98% # Class of executed instruction
system.cpu.op_class::MemRead                238245918     29.15%     92.12% # Class of executed instruction
system.cpu.op_class::MemWrite                64374231      7.88%    100.00% # Class of executed instruction
system.cpu.op_class::FloatMemRead                  68      0.00%    100.00% # Class of executed instruction
system.cpu.op_class::FloatMemWrite                435      0.00%    100.00% # Class of executed instruction
system.cpu.op_class::IprAccess                      0      0.00%    100.00% # Class of executed instruction
system.cpu.op_class::InstPrefetch                   0      0.00%    100.00% # Class of executed instruction
system.cpu.op_class::total                  817446129                       # Class of executed instruction
system.cpu.dcache.tags.pwrStateResidencyTicks::UNDEFINED 1135213164000                       # Cumulative time (in ticks) in various power states
system.cpu.dcache.tags.tagsinuse           511.827506                       # Cycle average of tags in use
system.cpu.dcache.tags.total_refs           302620655                       # Total number of references to valid blocks.
system.cpu.dcache.tags.sampled_refs            682612                       # Sample count of references to valid blocks.
system.cpu.dcache.tags.avg_refs            443.327476                       # Average number of references to valid blocks.
system.cpu.dcache.tags.warmup_cycle            765000                       # Cycle when the warmup percentage was hit.
system.cpu.dcache.tags.occ_blocks::cpu.data   511.827506                       # Average occupied blocks per requestor
system.cpu.dcache.tags.occ_percent::cpu.data     0.999663                       # Average percentage of cache occupancy
system.cpu.dcache.tags.occ_percent::total     0.999663                       # Average percentage of cache occupancy
system.cpu.dcache.tags.occ_task_id_blocks::1024          512                       # Occupied blocks per task id
system.cpu.dcache.tags.age_task_id_blocks_1024::0            9                       # Occupied blocks per task id
system.cpu.dcache.tags.age_task_id_blocks_1024::1           20                       # Occupied blocks per task id
system.cpu.dcache.tags.age_task_id_blocks_1024::2           54                       # Occupied blocks per task id
system.cpu.dcache.tags.age_task_id_blocks_1024::3          422                       # Occupied blocks per task id
system.cpu.dcache.tags.age_task_id_blocks_1024::4            7                       # Occupied blocks per task id
system.cpu.dcache.tags.occ_task_id_percent::1024            1                       # Percentage of cache occupancy per task id
system.cpu.dcache.tags.tag_accesses         605923922                       # Number of tag accesses
system.cpu.dcache.tags.data_accesses        605923922                       # Number of data accesses
system.cpu.dcache.pwrStateResidencyTicks::UNDEFINED 1135213164000                       # Cumulative time (in ticks) in various power states
system.cpu.dcache.ReadReq_hits::cpu.data    237629888                       # number of ReadReq hits
system.cpu.dcache.ReadReq_hits::total       237629888                       # number of ReadReq hits
system.cpu.dcache.WriteReq_hits::cpu.data     64183236                       # number of WriteReq hits
system.cpu.dcache.WriteReq_hits::total       64183236                       # number of WriteReq hits
system.cpu.dcache.demand_hits::cpu.data     301813124                       # number of demand (read+write) hits
system.cpu.dcache.demand_hits::total        301813124                       # number of demand (read+write) hits
system.cpu.dcache.overall_hits::cpu.data    301813124                       # number of overall hits
system.cpu.dcache.overall_hits::total       301813124                       # number of overall hits
system.cpu.dcache.ReadReq_misses::cpu.data       616100                       # number of ReadReq misses
system.cpu.dcache.ReadReq_misses::total        616100                       # number of ReadReq misses
system.cpu.dcache.WriteReq_misses::cpu.data       191431                       # number of WriteReq misses
system.cpu.dcache.WriteReq_misses::total       191431                       # number of WriteReq misses
system.cpu.dcache.demand_misses::cpu.data       807531                       # number of demand (read+write) misses
system.cpu.dcache.demand_misses::total         807531                       # number of demand (read+write) misses
system.cpu.dcache.overall_misses::cpu.data       807531                       # number of overall misses
system.cpu.dcache.overall_misses::total        807531                       # number of overall misses
system.cpu.dcache.ReadReq_miss_latency::cpu.data 137411692000                       # number of ReadReq miss cycles
system.cpu.dcache.ReadReq_miss_latency::total 137411692000                       # number of ReadReq miss cycles
system.cpu.dcache.WriteReq_miss_latency::cpu.data  18580920000                       # number of WriteReq miss cycles
system.cpu.dcache.WriteReq_miss_latency::total  18580920000                       # number of WriteReq miss cycles
system.cpu.dcache.demand_miss_latency::cpu.data 155992612000                       # number of demand (read+write) miss cycles
system.cpu.dcache.demand_miss_latency::total 155992612000                       # number of demand (read+write) miss cycles
system.cpu.dcache.overall_miss_latency::cpu.data 155992612000                       # number of overall miss cycles
system.cpu.dcache.overall_miss_latency::total 155992612000                       # number of overall miss cycles
system.cpu.dcache.ReadReq_accesses::cpu.data    238245988                       # number of ReadReq accesses(hits+misses)
system.cpu.dcache.ReadReq_accesses::total    238245988                       # number of ReadReq accesses(hits+misses)
system.cpu.dcache.WriteReq_accesses::cpu.data     64374667                       # number of WriteReq accesses(hits+misses)
system.cpu.dcache.WriteReq_accesses::total     64374667                       # number of WriteReq accesses(hits+misses)
system.cpu.dcache.demand_accesses::cpu.data    302620655                       # number of demand (read+write) accesses
system.cpu.dcache.demand_accesses::total    302620655                       # number of demand (read+write) accesses
system.cpu.dcache.overall_accesses::cpu.data    302620655                       # number of overall (read+write) accesses
system.cpu.dcache.overall_accesses::total    302620655                       # number of overall (read+write) accesses
system.cpu.dcache.ReadReq_miss_rate::cpu.data     0.002586                       # miss rate for ReadReq accesses
system.cpu.dcache.ReadReq_miss_rate::total     0.002586                       # miss rate for ReadReq accesses
system.cpu.dcache.WriteReq_miss_rate::cpu.data     0.002974                       # miss rate for WriteReq accesses
system.cpu.dcache.WriteReq_miss_rate::total     0.002974                       # miss rate for WriteReq accesses
system.cpu.dcache.demand_miss_rate::cpu.data     0.002668                       # miss rate for demand accesses
system.cpu.dcache.demand_miss_rate::total     0.002668                       # miss rate for demand accesses
system.cpu.dcache.overall_miss_rate::cpu.data     0.002668                       # miss rate for overall accesses
system.cpu.dcache.overall_miss_rate::total     0.002668                       # miss rate for overall accesses
system.cpu.dcache.ReadReq_avg_miss_latency::cpu.data 223034.721636                       # average ReadReq miss latency
system.cpu.dcache.ReadReq_avg_miss_latency::total 223034.721636                       # average ReadReq miss latency
system.cpu.dcache.WriteReq_avg_miss_latency::cpu.data 97063.276063                       # average WriteReq miss latency
system.cpu.dcache.WriteReq_avg_miss_latency::total 97063.276063                       # average WriteReq miss latency
system.cpu.dcache.demand_avg_miss_latency::cpu.data 193172.289361                       # average overall miss latency
system.cpu.dcache.demand_avg_miss_latency::total 193172.289361                       # average overall miss latency
system.cpu.dcache.overall_avg_miss_latency::cpu.data 193172.289361                       # average overall miss latency
system.cpu.dcache.overall_avg_miss_latency::total 193172.289361                       # average overall miss latency
system.cpu.dcache.blocked_cycles::no_mshrs            0                       # number of cycles access was blocked
system.cpu.dcache.blocked_cycles::no_targets            0                       # number of cycles access was blocked
system.cpu.dcache.blocked::no_mshrs                 0                       # number of cycles access was blocked
system.cpu.dcache.blocked::no_targets               0                       # number of cycles access was blocked
system.cpu.dcache.avg_blocked_cycles::no_mshrs          nan                       # average number of cycles each access was blocked
system.cpu.dcache.avg_blocked_cycles::no_targets          nan                       # average number of cycles each access was blocked
system.cpu.dcache.writebacks::writebacks       657081                       # number of writebacks
system.cpu.dcache.writebacks::total            657081                       # number of writebacks
system.cpu.dcache.ReadReq_mshr_misses::cpu.data       616100                       # number of ReadReq MSHR misses
system.cpu.dcache.ReadReq_mshr_misses::total       616100                       # number of ReadReq MSHR misses
system.cpu.dcache.WriteReq_mshr_misses::cpu.data       191431                       # number of WriteReq MSHR misses
system.cpu.dcache.WriteReq_mshr_misses::total       191431                       # number of WriteReq MSHR misses
system.cpu.dcache.demand_mshr_misses::cpu.data       807531                       # number of demand (read+write) MSHR misses
system.cpu.dcache.demand_mshr_misses::total       807531                       # number of demand (read+write) MSHR misses
system.cpu.dcache.overall_mshr_misses::cpu.data       807531                       # number of overall MSHR misses
system.cpu.dcache.overall_mshr_misses::total       807531                       # number of overall MSHR misses
system.cpu.dcache.ReadReq_mshr_miss_latency::cpu.data 136795592000                       # number of ReadReq MSHR miss cycles
system.cpu.dcache.ReadReq_mshr_miss_latency::total 136795592000                       # number of ReadReq MSHR miss cycles
system.cpu.dcache.WriteReq_mshr_miss_latency::cpu.data  18389489000                       # number of WriteReq MSHR miss cycles
system.cpu.dcache.WriteReq_mshr_miss_latency::total  18389489000                       # number of WriteReq MSHR miss cycles
system.cpu.dcache.demand_mshr_miss_latency::cpu.data 155185081000                       # number of demand (read+write) MSHR miss cycles
system.cpu.dcache.demand_mshr_miss_latency::total 155185081000                       # number of demand (read+write) MSHR miss cycles
system.cpu.dcache.overall_mshr_miss_latency::cpu.data 155185081000                       # number of overall MSHR miss cycles
system.cpu.dcache.overall_mshr_miss_latency::total 155185081000                       # number of overall MSHR miss cycles
system.cpu.dcache.ReadReq_mshr_miss_rate::cpu.data     0.002586                       # mshr miss rate for ReadReq accesses
system.cpu.dcache.ReadReq_mshr_miss_rate::total     0.002586                       # mshr miss rate for ReadReq accesses
system.cpu.dcache.WriteReq_mshr_miss_rate::cpu.data     0.002974                       # mshr miss rate for WriteReq accesses
system.cpu.dcache.WriteReq_mshr_miss_rate::total     0.002974                       # mshr miss rate for WriteReq accesses
system.cpu.dcache.demand_mshr_miss_rate::cpu.data     0.002668                       # mshr miss rate for demand accesses
system.cpu.dcache.demand_mshr_miss_rate::total     0.002668                       # mshr miss rate for demand accesses
system.cpu.dcache.overall_mshr_miss_rate::cpu.data     0.002668                       # mshr miss rate for overall accesses
system.cpu.dcache.overall_mshr_miss_rate::total     0.002668                       # mshr miss rate for overall accesses
system.cpu.dcache.ReadReq_avg_mshr_miss_latency::cpu.data 222034.721636                       # average ReadReq mshr miss latency
system.cpu.dcache.ReadReq_avg_mshr_miss_latency::total 222034.721636                       # average ReadReq mshr miss latency
system.cpu.dcache.WriteReq_avg_mshr_miss_latency::cpu.data 96063.276063                       # average WriteReq mshr miss latency
system.cpu.dcache.WriteReq_avg_mshr_miss_latency::total 96063.276063                       # average WriteReq mshr miss latency
system.cpu.dcache.demand_avg_mshr_miss_latency::cpu.data 192172.289361                       # average overall mshr miss latency
system.cpu.dcache.demand_avg_mshr_miss_latency::total 192172.289361                       # average overall mshr miss latency
system.cpu.dcache.overall_avg_mshr_miss_latency::cpu.data 192172.289361                       # average overall mshr miss latency
system.cpu.dcache.overall_avg_mshr_miss_latency::total 192172.289361                       # average overall mshr miss latency
system.cpu.dcache.replacements                 682100                       # number of replacements
system.cpu.dtb_walker_cache.tags.pwrStateResidencyTicks::UNDEFINED 1135213164000                       # Cumulative time (in ticks) in various power states
system.cpu.dtb_walker_cache.tags.tagsinuse            0                       # Cycle average of tags in use
system.cpu.dtb_walker_cache.tags.total_refs            0                       # Total number of references to valid blocks.
system.cpu.dtb_walker_cache.tags.sampled_refs            0                       # Sample count of references to valid blocks.
system.cpu.dtb_walker_cache.tags.avg_refs          nan                       # Average number of references to valid blocks.
system.cpu.dtb_walker_cache.tags.warmup_cycle            0                       # Cycle when the warmup percentage was hit.
system.cpu.dtb_walker_cache.tags.tag_accesses            0                       # Number of tag accesses
system.cpu.dtb_walker_cache.tags.data_accesses            0                       # Number of data accesses
system.cpu.dtb_walker_cache.pwrStateResidencyTicks::UNDEFINED 1135213164000                       # Cumulative time (in ticks) in various power states
system.cpu.dtb_walker_cache.blocked_cycles::no_mshrs            0                       # number of cycles access was blocked
system.cpu.dtb_walker_cache.blocked_cycles::no_targets            0                       # number of cycles access was blocked
system.cpu.dtb_walker_cache.blocked::no_mshrs            0                       # number of cycles access was blocked
system.cpu.dtb_walker_cache.blocked::no_targets            0                       # number of cycles access was blocked
system.cpu.dtb_walker_cache.avg_blocked_cycles::no_mshrs          nan                       # average number of cycles each access was blocked
system.cpu.dtb_walker_cache.avg_blocked_cycles::no_targets          nan                       # average number of cycles each access was blocked
system.cpu.dtb_walker_cache.replacements            0                       # number of replacements
system.cpu.icache.tags.pwrStateResidencyTicks::UNDEFINED 1135213164000                       # Cumulative time (in ticks) in various power states
system.cpu.icache.tags.tagsinuse           280.500169                       # Cycle average of tags in use
system.cpu.icache.tags.total_refs           677335213                       # Total number of references to valid blocks.
system.cpu.icache.tags.sampled_refs               356                       # Sample count of references to valid blocks.
system.cpu.icache.tags.avg_refs          1902627.002809                       # Average number of references to valid blocks.
system.cpu.icache.tags.warmup_cycle            445000                       # Cycle when the warmup percentage was hit.
system.cpu.icache.tags.occ_blocks::cpu.inst   280.500169                       # Average occupied blocks per requestor
system.cpu.icache.tags.occ_percent::cpu.inst     0.547852                       # Average percentage of cache occupancy
system.cpu.icache.tags.occ_percent::total     0.547852                       # Average percentage of cache occupancy
system.cpu.icache.tags.occ_task_id_blocks::1024          307                       # Occupied blocks per task id
system.cpu.icache.tags.age_task_id_blocks_1024::0           10                       # Occupied blocks per task id
system.cpu.icache.tags.age_task_id_blocks_1024::1           29                       # Occupied blocks per task id
system.cpu.icache.tags.age_task_id_blocks_1024::4          268                       # Occupied blocks per task id
system.cpu.icache.tags.occ_task_id_percent::1024     0.599609                       # Percentage of cache occupancy per task id
system.cpu.icache.tags.tag_accesses        1354670782                       # Number of tag accesses
system.cpu.icache.tags.data_accesses       1354670782                       # Number of data accesses
system.cpu.icache.pwrStateResidencyTicks::UNDEFINED 1135213164000                       # Cumulative time (in ticks) in various power states
system.cpu.icache.ReadReq_hits::cpu.inst    677334857                       # number of ReadReq hits
system.cpu.icache.ReadReq_hits::total       677334857                       # number of ReadReq hits
system.cpu.icache.demand_hits::cpu.inst     677334857                       # number of demand (read+write) hits
system.cpu.icache.demand_hits::total        677334857                       # number of demand (read+write) hits
system.cpu.icache.overall_hits::cpu.inst    677334857                       # number of overall hits
system.cpu.icache.overall_hits::total       677334857                       # number of overall hits
system.cpu.icache.ReadReq_misses::cpu.inst          356                       # number of ReadReq misses
system.cpu.icache.ReadReq_misses::total           356                       # number of ReadReq misses
system.cpu.icache.demand_misses::cpu.inst          356                       # number of demand (read+write) misses
system.cpu.icache.demand_misses::total            356                       # number of demand (read+write) misses
system.cpu.icache.overall_misses::cpu.inst          356                       # number of overall misses
system.cpu.icache.overall_misses::total           356                       # number of overall misses
system.cpu.icache.ReadReq_miss_latency::cpu.inst     72574000                       # number of ReadReq miss cycles
system.cpu.icache.ReadReq_miss_latency::total     72574000                       # number of ReadReq miss cycles
system.cpu.icache.demand_miss_latency::cpu.inst     72574000                       # number of demand (read+write) miss cycles
system.cpu.icache.demand_miss_latency::total     72574000                       # number of demand (read+write) miss cycles
system.cpu.icache.overall_miss_latency::cpu.inst     72574000                       # number of overall miss cycles
system.cpu.icache.overall_miss_latency::total     72574000                       # number of overall miss cycles
system.cpu.icache.ReadReq_accesses::cpu.inst    677335213                       # number of ReadReq accesses(hits+misses)
system.cpu.icache.ReadReq_accesses::total    677335213                       # number of ReadReq accesses(hits+misses)
system.cpu.icache.demand_accesses::cpu.inst    677335213                       # number of demand (read+write) accesses
system.cpu.icache.demand_accesses::total    677335213                       # number of demand (read+write) accesses
system.cpu.icache.overall_accesses::cpu.inst    677335213                       # number of overall (read+write) accesses
system.cpu.icache.overall_accesses::total    677335213                       # number of overall (read+write) accesses
system.cpu.icache.ReadReq_miss_rate::cpu.inst     0.000001                       # miss rate for ReadReq accesses
system.cpu.icache.ReadReq_miss_rate::total     0.000001                       # miss rate for ReadReq accesses
system.cpu.icache.demand_miss_rate::cpu.inst     0.000001                       # miss rate for demand accesses
system.cpu.icache.demand_miss_rate::total     0.000001                       # miss rate for demand accesses
system.cpu.icache.overall_miss_rate::cpu.inst     0.000001                       # miss rate for overall accesses
system.cpu.icache.overall_miss_rate::total     0.000001                       # miss rate for overall accesses
system.cpu.icache.ReadReq_avg_miss_latency::cpu.inst 203859.550562                       # average ReadReq miss latency
system.cpu.icache.ReadReq_avg_miss_latency::total 203859.550562                       # average ReadReq miss latency
system.cpu.icache.demand_avg_miss_latency::cpu.inst 203859.550562                       # average overall miss latency
system.cpu.icache.demand_avg_miss_latency::total 203859.550562                       # average overall miss latency
system.cpu.icache.overall_avg_miss_latency::cpu.inst 203859.550562                       # average overall miss latency
system.cpu.icache.overall_avg_miss_latency::total 203859.550562                       # average overall miss latency
system.cpu.icache.blocked_cycles::no_mshrs            0                       # number of cycles access was blocked
system.cpu.icache.blocked_cycles::no_targets            0                       # number of cycles access was blocked
system.cpu.icache.blocked::no_mshrs                 0                       # number of cycles access was blocked
system.cpu.icache.blocked::no_targets               0                       # number of cycles access was blocked
system.cpu.icache.avg_blocked_cycles::no_mshrs          nan                       # average number of cycles each access was blocked
system.cpu.icache.avg_blocked_cycles::no_targets          nan                       # average number of cycles each access was blocked
system.cpu.icache.writebacks::writebacks           49                       # number of writebacks
system.cpu.icache.writebacks::total                49                       # number of writebacks
system.cpu.icache.ReadReq_mshr_misses::cpu.inst          356                       # number of ReadReq MSHR misses
system.cpu.icache.ReadReq_mshr_misses::total          356                       # number of ReadReq MSHR misses
system.cpu.icache.demand_mshr_misses::cpu.inst          356                       # number of demand (read+write) MSHR misses
system.cpu.icache.demand_mshr_misses::total          356                       # number of demand (read+write) MSHR misses
system.cpu.icache.overall_mshr_misses::cpu.inst          356                       # number of overall MSHR misses
system.cpu.icache.overall_mshr_misses::total          356                       # number of overall MSHR misses
system.cpu.icache.ReadReq_mshr_miss_latency::cpu.inst     72218000                       # number of ReadReq MSHR miss cycles
system.cpu.icache.ReadReq_mshr_miss_latency::total     72218000                       # number of ReadReq MSHR miss cycles
system.cpu.icache.demand_mshr_miss_latency::cpu.inst     72218000                       # number of demand (read+write) MSHR miss cycles
system.cpu.icache.demand_mshr_miss_latency::total     72218000                       # number of demand (read+write) MSHR miss cycles
system.cpu.icache.overall_mshr_miss_latency::cpu.inst     72218000                       # number of overall MSHR miss cycles
system.cpu.icache.overall_mshr_miss_latency::total     72218000                       # number of overall MSHR miss cycles
system.cpu.icache.ReadReq_mshr_miss_rate::cpu.inst     0.000001                       # mshr miss rate for ReadReq accesses
system.cpu.icache.ReadReq_mshr_miss_rate::total     0.000001                       # mshr miss rate for ReadReq accesses
system.cpu.icache.demand_mshr_miss_rate::cpu.inst     0.000001                       # mshr miss rate for demand accesses
system.cpu.icache.demand_mshr_miss_rate::total     0.000001                       # mshr miss rate for demand accesses
system.cpu.icache.overall_mshr_miss_rate::cpu.inst     0.000001                       # mshr miss rate for overall accesses
system.cpu.icache.overall_mshr_miss_rate::total     0.000001                       # mshr miss rate for overall accesses
system.cpu.icache.ReadReq_avg_mshr_miss_latency::cpu.inst 202859.550562                       # average ReadReq mshr miss latency
system.cpu.icache.ReadReq_avg_mshr_miss_latency::total 202859.550562                       # average ReadReq mshr miss latency
system.cpu.icache.demand_avg_mshr_miss_latency::cpu.inst 202859.550562                       # average overall mshr miss latency
system.cpu.icache.demand_avg_mshr_miss_latency::total 202859.550562                       # average overall mshr miss latency
system.cpu.icache.overall_avg_mshr_miss_latency::cpu.inst 202859.550562                       # average overall mshr miss latency
system.cpu.icache.overall_avg_mshr_miss_latency::total 202859.550562                       # average overall mshr miss latency
system.cpu.icache.replacements                     49                       # number of replacements
system.cpu.itb_walker_cache.tags.pwrStateResidencyTicks::UNDEFINED 1135213164000                       # Cumulative time (in ticks) in various power states
system.cpu.itb_walker_cache.tags.tagsinuse            0                       # Cycle average of tags in use
system.cpu.itb_walker_cache.tags.total_refs            0                       # Total number of references to valid blocks.
system.cpu.itb_walker_cache.tags.sampled_refs            0                       # Sample count of references to valid blocks.
system.cpu.itb_walker_cache.tags.avg_refs          nan                       # Average number of references to valid blocks.
system.cpu.itb_walker_cache.tags.warmup_cycle            0                       # Cycle when the warmup percentage was hit.
system.cpu.itb_walker_cache.tags.tag_accesses            0                       # Number of tag accesses
system.cpu.itb_walker_cache.tags.data_accesses            0                       # Number of data accesses
system.cpu.itb_walker_cache.pwrStateResidencyTicks::UNDEFINED 1135213164000                       # Cumulative time (in ticks) in various power states
system.cpu.itb_walker_cache.blocked_cycles::no_mshrs            0                       # number of cycles access was blocked
system.cpu.itb_walker_cache.blocked_cycles::no_targets            0                       # number of cycles access was blocked
system.cpu.itb_walker_cache.blocked::no_mshrs            0                       # number of cycles access was blocked
system.cpu.itb_walker_cache.blocked::no_targets            0                       # number of cycles access was blocked
system.cpu.itb_walker_cache.avg_blocked_cycles::no_mshrs          nan                       # average number of cycles each access was blocked
system.cpu.itb_walker_cache.avg_blocked_cycles::no_targets          nan                       # average number of cycles each access was blocked
system.cpu.itb_walker_cache.replacements            0                       # number of replacements
system.l2.tags.pwrStateResidencyTicks::UNDEFINED 1135213164000                       # Cumulative time (in ticks) in various power states
system.l2.tags.tagsinuse                  2045.659711                       # Cycle average of tags in use
system.l2.tags.total_refs                     1490036                       # Total number of references to valid blocks.
system.l2.tags.sampled_refs                    518843                       # Sample count of references to valid blocks.
system.l2.tags.avg_refs                      2.871844                       # Average number of references to valid blocks.
system.l2.tags.warmup_cycle                    434500                       # Cycle when the warmup percentage was hit.
system.l2.tags.occ_blocks::writebacks        1.015705                       # Average occupied blocks per requestor
system.l2.tags.occ_blocks::cpu.inst          0.906661                       # Average occupied blocks per requestor
system.l2.tags.occ_blocks::cpu.data       2043.737345                       # Average occupied blocks per requestor
system.l2.tags.occ_percent::writebacks       0.000496                       # Average percentage of cache occupancy
system.l2.tags.occ_percent::cpu.inst         0.000443                       # Average percentage of cache occupancy
system.l2.tags.occ_percent::cpu.data         0.997919                       # Average percentage of cache occupancy
system.l2.tags.occ_percent::total            0.998857                       # Average percentage of cache occupancy
system.l2.tags.occ_task_id_blocks::1024          2048                       # Occupied blocks per task id
system.l2.tags.age_task_id_blocks_1024::0           28                       # Occupied blocks per task id
system.l2.tags.age_task_id_blocks_1024::1           52                       # Occupied blocks per task id
system.l2.tags.age_task_id_blocks_1024::3          450                       # Occupied blocks per task id
system.l2.tags.age_task_id_blocks_1024::4         1518                       # Occupied blocks per task id
system.l2.tags.occ_task_id_percent::1024            1                       # Percentage of cache occupancy per task id
system.l2.tags.tag_accesses                  12439131                       # Number of tag accesses
system.l2.tags.data_accesses                 12439131                       # Number of data accesses
system.l2.pwrStateResidencyTicks::UNDEFINED 1135213164000                       # Cumulative time (in ticks) in various power states
system.l2.WritebackDirty_hits::writebacks       657081                       # number of WritebackDirty hits
system.l2.WritebackDirty_hits::total           657081                       # number of WritebackDirty hits
system.l2.WritebackClean_hits::writebacks           49                       # number of WritebackClean hits
system.l2.WritebackClean_hits::total               49                       # number of WritebackClean hits
system.l2.UpgradeReq_hits::cpu.data            124919                       # number of UpgradeReq hits
system.l2.UpgradeReq_hits::total               124919                       # number of UpgradeReq hits
system.l2.ReadExReq_hits::cpu.data               3076                       # number of ReadExReq hits
system.l2.ReadExReq_hits::total                  3076                       # number of ReadExReq hits
system.l2.ReadSharedReq_hits::cpu.data         161156                       # number of ReadSharedReq hits
system.l2.ReadSharedReq_hits::total            161156                       # number of ReadSharedReq hits
system.l2.demand_hits::cpu.data                164232                       # number of demand (read+write) hits
system.l2.demand_hits::total                   164232                       # number of demand (read+write) hits
system.l2.overall_hits::cpu.data               164232                       # number of overall hits
system.l2.overall_hits::total                  164232                       # number of overall hits
system.l2.ReadExReq_misses::cpu.data            63436                       # number of ReadExReq misses
system.l2.ReadExReq_misses::total               63436                       # number of ReadExReq misses
system.l2.ReadCleanReq_misses::cpu.inst           356                       # number of ReadCleanReq misses
system.l2.ReadCleanReq_misses::total              356                       # number of ReadCleanReq misses
system.l2.ReadSharedReq_misses::cpu.data       454944                       # number of ReadSharedReq misses
system.l2.ReadSharedReq_misses::total          454944                       # number of ReadSharedReq misses
system.l2.demand_misses::cpu.inst                 356                       # number of demand (read+write) misses
system.l2.demand_misses::cpu.data              518380                       # number of demand (read+write) misses
system.l2.demand_misses::total                 518736                       # number of demand (read+write) misses
system.l2.overall_misses::cpu.inst                356                       # number of overall misses
system.l2.overall_misses::cpu.data             518380                       # number of overall misses
system.l2.overall_misses::total                518736                       # number of overall misses
system.l2.ReadExReq_miss_latency::cpu.data  16758394500                       # number of ReadExReq miss cycles
system.l2.ReadExReq_miss_latency::total   16758394500                       # number of ReadExReq miss cycles
system.l2.ReadCleanReq_miss_latency::cpu.inst     71683500                       # number of ReadCleanReq miss cycles
system.l2.ReadCleanReq_miss_latency::total     71683500                       # number of ReadCleanReq miss cycles
system.l2.ReadSharedReq_miss_latency::cpu.data 134179304000                       # number of ReadSharedReq miss cycles
system.l2.ReadSharedReq_miss_latency::total 134179304000                       # number of ReadSharedReq miss cycles
system.l2.demand_miss_latency::cpu.inst      71683500                       # number of demand (read+write) miss cycles
system.l2.demand_miss_latency::cpu.data  150937698500                       # number of demand (read+write) miss cycles
system.l2.demand_miss_latency::total     151009382000                       # number of demand (read+write) miss cycles
system.l2.overall_miss_latency::cpu.inst     71683500                       # number of overall miss cycles
system.l2.overall_miss_latency::cpu.data 150937698500                       # number of overall miss cycles
system.l2.overall_miss_latency::total    151009382000                       # number of overall miss cycles
system.l2.WritebackDirty_accesses::writebacks       657081                       # number of WritebackDirty accesses(hits+misses)
system.l2.WritebackDirty_accesses::total       657081                       # number of WritebackDirty accesses(hits+misses)
system.l2.WritebackClean_accesses::writebacks           49                       # number of WritebackClean accesses(hits+misses)
system.l2.WritebackClean_accesses::total           49                       # number of WritebackClean accesses(hits+misses)
system.l2.UpgradeReq_accesses::cpu.data        124919                       # number of UpgradeReq accesses(hits+misses)
system.l2.UpgradeReq_accesses::total           124919                       # number of UpgradeReq accesses(hits+misses)
system.l2.ReadExReq_accesses::cpu.data          66512                       # number of ReadExReq accesses(hits+misses)
system.l2.ReadExReq_accesses::total             66512                       # number of ReadExReq accesses(hits+misses)
system.l2.ReadCleanReq_accesses::cpu.inst          356                       # number of ReadCleanReq accesses(hits+misses)
system.l2.ReadCleanReq_accesses::total            356                       # number of ReadCleanReq accesses(hits+misses)
system.l2.ReadSharedReq_accesses::cpu.data       616100                       # number of ReadSharedReq accesses(hits+misses)
system.l2.ReadSharedReq_accesses::total        616100                       # number of ReadSharedReq accesses(hits+misses)
system.l2.demand_accesses::cpu.inst               356                       # number of demand (read+write) accesses
system.l2.demand_accesses::cpu.data            682612                       # number of demand (read+write) accesses
system.l2.demand_accesses::total               682968                       # number of demand (read+write) accesses
system.l2.overall_accesses::cpu.inst              356                       # number of overall (read+write) accesses
system.l2.overall_accesses::cpu.data           682612                       # number of overall (read+write) accesses
system.l2.overall_accesses::total              682968                       # number of overall (read+write) accesses
system.l2.ReadExReq_miss_rate::cpu.data      0.953753                       # miss rate for ReadExReq accesses
system.l2.ReadExReq_miss_rate::total         0.953753                       # miss rate for ReadExReq accesses
system.l2.ReadCleanReq_miss_rate::cpu.inst            1                       # miss rate for ReadCleanReq accesses
system.l2.ReadCleanReq_miss_rate::total             1                       # miss rate for ReadCleanReq accesses
system.l2.ReadSharedReq_miss_rate::cpu.data     0.738426                       # miss rate for ReadSharedReq accesses
system.l2.ReadSharedReq_miss_rate::total     0.738426                       # miss rate for ReadSharedReq accesses
system.l2.demand_miss_rate::cpu.inst                1                       # miss rate for demand accesses
system.l2.demand_miss_rate::cpu.data         0.759407                       # miss rate for demand accesses
system.l2.demand_miss_rate::total            0.759532                       # miss rate for demand accesses
system.l2.overall_miss_rate::cpu.inst               1                       # miss rate for overall accesses
system.l2.overall_miss_rate::cpu.data        0.759407                       # miss rate for overall accesses
system.l2.overall_miss_rate::total           0.759532                       # miss rate for overall accesses
system.l2.ReadExReq_avg_miss_latency::cpu.data 264177.982534                       # average ReadExReq miss latency
system.l2.ReadExReq_avg_miss_latency::total 264177.982534                       # average ReadExReq miss latency
system.l2.ReadCleanReq_avg_miss_latency::cpu.inst 201358.146067                       # average ReadCleanReq miss latency
system.l2.ReadCleanReq_avg_miss_latency::total 201358.146067                       # average ReadCleanReq miss latency
system.l2.ReadSharedReq_avg_miss_latency::cpu.data 294935.869030                       # average ReadSharedReq miss latency
system.l2.ReadSharedReq_avg_miss_latency::total 294935.869030                       # average ReadSharedReq miss latency
system.l2.demand_avg_miss_latency::cpu.inst 201358.146067                       # average overall miss latency
system.l2.demand_avg_miss_latency::cpu.data 291171.917319                       # average overall miss latency
system.l2.demand_avg_miss_latency::total 291110.279603                       # average overall miss latency
system.l2.overall_avg_miss_latency::cpu.inst 201358.146067                       # average overall miss latency
system.l2.overall_avg_miss_latency::cpu.data 291171.917319                       # average overall miss latency
system.l2.overall_avg_miss_latency::total 291110.279603                       # average overall miss latency
system.l2.blocked_cycles::no_mshrs                  0                       # number of cycles access was blocked
system.l2.blocked_cycles::no_targets                0                       # number of cycles access was blocked
system.l2.blocked::no_mshrs                         0                       # number of cycles access was blocked
system.l2.blocked::no_targets                       0                       # number of cycles access was blocked
system.l2.avg_blocked_cycles::no_mshrs            nan                       # average number of cycles each access was blocked
system.l2.avg_blocked_cycles::no_targets          nan                       # average number of cycles each access was blocked
system.l2.writebacks::writebacks               504910                       # number of writebacks
system.l2.writebacks::total                    504910                       # number of writebacks
system.l2.ReadExReq_mshr_misses::cpu.data        63436                       # number of ReadExReq MSHR misses
system.l2.ReadExReq_mshr_misses::total          63436                       # number of ReadExReq MSHR misses
system.l2.ReadCleanReq_mshr_misses::cpu.inst          356                       # number of ReadCleanReq MSHR misses
system.l2.ReadCleanReq_mshr_misses::total          356                       # number of ReadCleanReq MSHR misses
system.l2.ReadSharedReq_mshr_misses::cpu.data       454944                       # number of ReadSharedReq MSHR misses
system.l2.ReadSharedReq_mshr_misses::total       454944                       # number of ReadSharedReq MSHR misses
system.l2.demand_mshr_misses::cpu.inst            356                       # number of demand (read+write) MSHR misses
system.l2.demand_mshr_misses::cpu.data         518380                       # number of demand (read+write) MSHR misses
system.l2.demand_mshr_misses::total            518736                       # number of demand (read+write) MSHR misses
system.l2.overall_mshr_misses::cpu.inst           356                       # number of overall MSHR misses
system.l2.overall_mshr_misses::cpu.data        518380                       # number of overall MSHR misses
system.l2.overall_mshr_misses::total           518736                       # number of overall MSHR misses
system.l2.ReadExReq_mshr_miss_latency::cpu.data  16124034500                       # number of ReadExReq MSHR miss cycles
system.l2.ReadExReq_mshr_miss_latency::total  16124034500                       # number of ReadExReq MSHR miss cycles
system.l2.ReadCleanReq_mshr_miss_latency::cpu.inst     68123500                       # number of ReadCleanReq MSHR miss cycles
system.l2.ReadCleanReq_mshr_miss_latency::total     68123500                       # number of ReadCleanReq MSHR miss cycles
system.l2.ReadSharedReq_mshr_miss_latency::cpu.data 129629864000                       # number of ReadSharedReq MSHR miss cycles
system.l2.ReadSharedReq_mshr_miss_latency::total 129629864000                       # number of ReadSharedReq MSHR miss cycles
system.l2.demand_mshr_miss_latency::cpu.inst     68123500                       # number of demand (read+write) MSHR miss cycles
system.l2.demand_mshr_miss_latency::cpu.data 145753898500                       # number of demand (read+write) MSHR miss cycles
system.l2.demand_mshr_miss_latency::total 145822022000                       # number of demand (read+write) MSHR miss cycles
system.l2.overall_mshr_miss_latency::cpu.inst     68123500                       # number of overall MSHR miss cycles
system.l2.overall_mshr_miss_latency::cpu.data 145753898500                       # number of overall MSHR miss cycles
system.l2.overall_mshr_miss_latency::total 145822022000                       # number of overall MSHR miss cycles
system.l2.ReadExReq_mshr_miss_rate::cpu.data     0.953753                       # mshr miss rate for ReadExReq accesses
system.l2.ReadExReq_mshr_miss_rate::total     0.953753                       # mshr miss rate for ReadExReq accesses
system.l2.ReadCleanReq_mshr_miss_rate::cpu.inst            1                       # mshr miss rate for ReadCleanReq accesses
system.l2.ReadCleanReq_mshr_miss_rate::total            1                       # mshr miss rate for ReadCleanReq accesses
system.l2.ReadSharedReq_mshr_miss_rate::cpu.data     0.738426                       # mshr miss rate for ReadSharedReq accesses
system.l2.ReadSharedReq_mshr_miss_rate::total     0.738426                       # mshr miss rate for ReadSharedReq accesses
system.l2.demand_mshr_miss_rate::cpu.inst            1                       # mshr miss rate for demand accesses
system.l2.demand_mshr_miss_rate::cpu.data     0.759407                       # mshr miss rate for demand accesses
system.l2.demand_mshr_miss_rate::total       0.759532                       # mshr miss rate for demand accesses
system.l2.overall_mshr_miss_rate::cpu.inst            1                       # mshr miss rate for overall accesses
system.l2.overall_mshr_miss_rate::cpu.data     0.759407                       # mshr miss rate for overall accesses
system.l2.overall_mshr_miss_rate::total      0.759532                       # mshr miss rate for overall accesses
system.l2.ReadExReq_avg_mshr_miss_latency::cpu.data 254177.982534                       # average ReadExReq mshr miss latency
system.l2.ReadExReq_avg_mshr_miss_latency::total 254177.982534                       # average ReadExReq mshr miss latency
system.l2.ReadCleanReq_avg_mshr_miss_latency::cpu.inst 191358.146067                       # average ReadCleanReq mshr miss latency
system.l2.ReadCleanReq_avg_mshr_miss_latency::total 191358.146067                       # average ReadCleanReq mshr miss latency
system.l2.ReadSharedReq_avg_mshr_miss_latency::cpu.data 284935.869030                       # average ReadSharedReq mshr miss latency
system.l2.ReadSharedReq_avg_mshr_miss_latency::total 284935.869030                       # average ReadSharedReq mshr miss latency
system.l2.demand_avg_mshr_miss_latency::cpu.inst 191358.146067                       # average overall mshr miss latency
system.l2.demand_avg_mshr_miss_latency::cpu.data 281171.917319                       # average overall mshr miss latency
system.l2.demand_avg_mshr_miss_latency::total 281110.279603                       # average overall mshr miss latency
system.l2.overall_avg_mshr_miss_latency::cpu.inst 191358.146067                       # average overall mshr miss latency
system.l2.overall_avg_mshr_miss_latency::cpu.data 281171.917319                       # average overall mshr miss latency
system.l2.overall_avg_mshr_miss_latency::total 281110.279603                       # average overall mshr miss latency
system.l2.replacements                         516795                       # number of replacements
system.l3.tags.pwrStateResidencyTicks::UNDEFINED 1135213164000                       # Cumulative time (in ticks) in various power states
system.l3.tags.tagsinuse                 16159.705687                       # Cycle average of tags in use
system.l3.tags.total_refs                     1023744                       # Total number of references to valid blocks.
system.l3.tags.sampled_refs                    739641                       # Sample count of references to valid blocks.
system.l3.tags.avg_refs                      1.384109                       # Average number of references to valid blocks.
system.l3.tags.warmup_cycle                    418000                       # Cycle when the warmup percentage was hit.
system.l3.tags.occ_blocks::writebacks       12.327034                       # Average occupied blocks per requestor
system.l3.tags.occ_blocks::cpu.inst        299.763637                       # Average occupied blocks per requestor
system.l3.tags.occ_blocks::cpu.data      15847.615016                       # Average occupied blocks per requestor
system.l3.tags.occ_percent::writebacks       0.000752                       # Average percentage of cache occupancy
system.l3.tags.occ_percent::cpu.inst         0.018296                       # Average percentage of cache occupancy
system.l3.tags.occ_percent::cpu.data         0.967262                       # Average percentage of cache occupancy
system.l3.tags.occ_percent::total            0.986310                       # Average percentage of cache occupancy
system.l3.tags.occ_task_id_blocks::1024         16384                       # Occupied blocks per task id
system.l3.tags.age_task_id_blocks_1024::0            1                       # Occupied blocks per task id
system.l3.tags.age_task_id_blocks_1024::4        16383                       # Occupied blocks per task id
system.l3.tags.occ_task_id_percent::1024            1                       # Percentage of cache occupancy per task id
system.l3.tags.tag_accesses               16960719161                       # Number of tag accesses
system.l3.tags.data_accesses              16960719161                       # Number of data accesses
system.l3.pwrStateResidencyTicks::UNDEFINED 1135213164000                       # Cumulative time (in ticks) in various power states
system.l3.WritebackDirty_hits::writebacks       504909                       # number of WritebackDirty hits
system.l3.WritebackDirty_hits::total           504909                       # number of WritebackDirty hits
system.l3.ReadExReq_hits::cpu.data                 87                       # number of ReadExReq hits
system.l3.ReadExReq_hits::total                    87                       # number of ReadExReq hits
system.l3.ReadSharedReq_hits::cpu.inst              1                       # number of ReadSharedReq hits
system.l3.ReadSharedReq_hits::cpu.data         133928                       # number of ReadSharedReq hits
system.l3.ReadSharedReq_hits::total            133929                       # number of ReadSharedReq hits
system.l3.demand_hits::cpu.inst                     1                       # number of demand (read+write) hits
system.l3.demand_hits::cpu.data                134015                       # number of demand (read+write) hits
system.l3.demand_hits::total                   134016                       # number of demand (read+write) hits
system.l3.overall_hits::cpu.inst                    1                       # number of overall hits
system.l3.overall_hits::cpu.data               134015                       # number of overall hits
system.l3.overall_hits::total                  134016                       # number of overall hits
system.l3.ReadExReq_misses::cpu.data            63349                       # number of ReadExReq misses
system.l3.ReadExReq_misses::total               63349                       # number of ReadExReq misses
system.l3.ReadSharedReq_misses::cpu.inst          355                       # number of ReadSharedReq misses
system.l3.ReadSharedReq_misses::cpu.data       321016                       # number of ReadSharedReq misses
system.l3.ReadSharedReq_misses::total          321371                       # number of ReadSharedReq misses
system.l3.demand_misses::cpu.inst                 355                       # number of demand (read+write) misses
system.l3.demand_misses::cpu.data              384365                       # number of demand (read+write) misses
system.l3.demand_misses::total                 384720                       # number of demand (read+write) misses
system.l3.overall_misses::cpu.inst                355                       # number of overall misses
system.l3.overall_misses::cpu.data             384365                       # number of overall misses
system.l3.overall_misses::total                384720                       # number of overall misses
system.l3.ReadExReq_miss_latency::cpu.data  15424803000                       # number of ReadExReq miss cycles
system.l3.ReadExReq_miss_latency::total   15424803000                       # number of ReadExReq miss cycles
system.l3.ReadSharedReq_miss_latency::cpu.inst     64191000                       # number of ReadSharedReq miss cycles
system.l3.ReadSharedReq_miss_latency::cpu.data 122415668000                       # number of ReadSharedReq miss cycles
system.l3.ReadSharedReq_miss_latency::total 122479859000                       # number of ReadSharedReq miss cycles
system.l3.demand_miss_latency::cpu.inst      64191000                       # number of demand (read+write) miss cycles
system.l3.demand_miss_latency::cpu.data  137840471000                       # number of demand (read+write) miss cycles
system.l3.demand_miss_latency::total     137904662000                       # number of demand (read+write) miss cycles
system.l3.overall_miss_latency::cpu.inst     64191000                       # number of overall miss cycles
system.l3.overall_miss_latency::cpu.data 137840471000                       # number of overall miss cycles
system.l3.overall_miss_latency::total    137904662000                       # number of overall miss cycles
system.l3.WritebackDirty_accesses::writebacks       504909                       # number of WritebackDirty accesses(hits+misses)
system.l3.WritebackDirty_accesses::total       504909                       # number of WritebackDirty accesses(hits+misses)
system.l3.ReadExReq_accesses::cpu.data          63436                       # number of ReadExReq accesses(hits+misses)
system.l3.ReadExReq_accesses::total             63436                       # number of ReadExReq accesses(hits+misses)
system.l3.ReadSharedReq_accesses::cpu.inst          356                       # number of ReadSharedReq accesses(hits+misses)
system.l3.ReadSharedReq_accesses::cpu.data       454944                       # number of ReadSharedReq accesses(hits+misses)
system.l3.ReadSharedReq_accesses::total        455300                       # number of ReadSharedReq accesses(hits+misses)
system.l3.demand_accesses::cpu.inst               356                       # number of demand (read+write) accesses
system.l3.demand_accesses::cpu.data            518380                       # number of demand (read+write) accesses
system.l3.demand_accesses::total               518736                       # number of demand (read+write) accesses
system.l3.overall_accesses::cpu.inst              356                       # number of overall (read+write) accesses
system.l3.overall_accesses::cpu.data           518380                       # number of overall (read+write) accesses
system.l3.overall_accesses::total              518736                       # number of overall (read+write) accesses
system.l3.ReadExReq_miss_rate::cpu.data      0.998629                       # miss rate for ReadExReq accesses
system.l3.ReadExReq_miss_rate::total         0.998629                       # miss rate for ReadExReq accesses
system.l3.ReadSharedReq_miss_rate::cpu.inst     0.997191                       # miss rate for ReadSharedReq accesses
system.l3.ReadSharedReq_miss_rate::cpu.data     0.705617                       # miss rate for ReadSharedReq accesses
system.l3.ReadSharedReq_miss_rate::total     0.705844                       # miss rate for ReadSharedReq accesses
system.l3.demand_miss_rate::cpu.inst         0.997191                       # miss rate for demand accesses
system.l3.demand_miss_rate::cpu.data         0.741473                       # miss rate for demand accesses
system.l3.demand_miss_rate::total            0.741649                       # miss rate for demand accesses
system.l3.overall_miss_rate::cpu.inst        0.997191                       # miss rate for overall accesses
system.l3.overall_miss_rate::cpu.data        0.741473                       # miss rate for overall accesses
system.l3.overall_miss_rate::total           0.741649                       # miss rate for overall accesses
system.l3.ReadExReq_avg_miss_latency::cpu.data 243489.289492                       # average ReadExReq miss latency
system.l3.ReadExReq_avg_miss_latency::total 243489.289492                       # average ReadExReq miss latency
system.l3.ReadSharedReq_avg_miss_latency::cpu.inst 180819.718310                       # average ReadSharedReq miss latency
system.l3.ReadSharedReq_avg_miss_latency::cpu.data 381338.213672                       # average ReadSharedReq miss latency
system.l3.ReadSharedReq_avg_miss_latency::total 381116.712460                       # average ReadSharedReq miss latency
system.l3.demand_avg_miss_latency::cpu.inst 180819.718310                       # average overall miss latency
system.l3.demand_avg_miss_latency::cpu.data 358618.685364                       # average overall miss latency
system.l3.demand_avg_miss_latency::total 358454.621543                       # average overall miss latency
system.l3.overall_avg_miss_latency::cpu.inst 180819.718310                       # average overall miss latency
system.l3.overall_avg_miss_latency::cpu.data 358618.685364                       # average overall miss latency
system.l3.overall_avg_miss_latency::total 358454.621543                       # average overall miss latency
system.l3.blocked_cycles::no_mshrs                  0                       # number of cycles access was blocked
system.l3.blocked_cycles::no_targets                0                       # number of cycles access was blocked
system.l3.blocked::no_mshrs                         0                       # number of cycles access was blocked
system.l3.blocked::no_targets                       0                       # number of cycles access was blocked
system.l3.avg_blocked_cycles::no_mshrs            nan                       # average number of cycles each access was blocked
system.l3.avg_blocked_cycles::no_targets          nan                       # average number of cycles each access was blocked
system.l3.writebacks::writebacks               354888                       # number of writebacks
system.l3.writebacks::total                    354888                       # number of writebacks
system.l3.CleanEvict_mshr_misses::writebacks        11411                       # number of CleanEvict MSHR misses
system.l3.CleanEvict_mshr_misses::total         11411                       # number of CleanEvict MSHR misses
system.l3.ReadExReq_mshr_misses::cpu.data        63349                       # number of ReadExReq MSHR misses
system.l3.ReadExReq_mshr_misses::total          63349                       # number of ReadExReq MSHR misses
system.l3.ReadSharedReq_mshr_misses::cpu.inst          355                       # number of ReadSharedReq MSHR misses
system.l3.ReadSharedReq_mshr_misses::cpu.data       321016                       # number of ReadSharedReq MSHR misses
system.l3.ReadSharedReq_mshr_misses::total       321371                       # number of ReadSharedReq MSHR misses
system.l3.demand_mshr_misses::cpu.inst            355                       # number of demand (read+write) MSHR misses
system.l3.demand_mshr_misses::cpu.data         384365                       # number of demand (read+write) MSHR misses
system.l3.demand_mshr_misses::total            384720                       # number of demand (read+write) MSHR misses
system.l3.overall_mshr_misses::cpu.inst           355                       # number of overall MSHR misses
system.l3.overall_mshr_misses::cpu.data        384365                       # number of overall MSHR misses
system.l3.overall_mshr_misses::total           384720                       # number of overall MSHR misses
system.l3.ReadExReq_mshr_miss_latency::cpu.data  14411219000                       # number of ReadExReq MSHR miss cycles
system.l3.ReadExReq_mshr_miss_latency::total  14411219000                       # number of ReadExReq MSHR miss cycles
system.l3.ReadSharedReq_mshr_miss_latency::cpu.inst     58511000                       # number of ReadSharedReq MSHR miss cycles
system.l3.ReadSharedReq_mshr_miss_latency::cpu.data 117279412000                       # number of ReadSharedReq MSHR miss cycles
system.l3.ReadSharedReq_mshr_miss_latency::total 117337923000                       # number of ReadSharedReq MSHR miss cycles
system.l3.demand_mshr_miss_latency::cpu.inst     58511000                       # number of demand (read+write) MSHR miss cycles
system.l3.demand_mshr_miss_latency::cpu.data 131690631000                       # number of demand (read+write) MSHR miss cycles
system.l3.demand_mshr_miss_latency::total 131749142000                       # number of demand (read+write) MSHR miss cycles
system.l3.overall_mshr_miss_latency::cpu.inst     58511000                       # number of overall MSHR miss cycles
system.l3.overall_mshr_miss_latency::cpu.data 131690631000                       # number of overall MSHR miss cycles
system.l3.overall_mshr_miss_latency::total 131749142000                       # number of overall MSHR miss cycles
system.l3.CleanEvict_mshr_miss_rate::writebacks          inf                       # mshr miss rate for CleanEvict accesses
system.l3.CleanEvict_mshr_miss_rate::total          inf                       # mshr miss rate for CleanEvict accesses
system.l3.ReadExReq_mshr_miss_rate::cpu.data     0.998629                       # mshr miss rate for ReadExReq accesses
system.l3.ReadExReq_mshr_miss_rate::total     0.998629                       # mshr miss rate for ReadExReq accesses
system.l3.ReadSharedReq_mshr_miss_rate::cpu.inst     0.997191                       # mshr miss rate for ReadSharedReq accesses
system.l3.ReadSharedReq_mshr_miss_rate::cpu.data     0.705617                       # mshr miss rate for ReadSharedReq accesses
system.l3.ReadSharedReq_mshr_miss_rate::total     0.705844                       # mshr miss rate for ReadSharedReq accesses
system.l3.demand_mshr_miss_rate::cpu.inst     0.997191                       # mshr miss rate for demand accesses
system.l3.demand_mshr_miss_rate::cpu.data     0.741473                       # mshr miss rate for demand accesses
system.l3.demand_mshr_miss_rate::total       0.741649                       # mshr miss rate for demand accesses
system.l3.overall_mshr_miss_rate::cpu.inst     0.997191                       # mshr miss rate for overall accesses
system.l3.overall_mshr_miss_rate::cpu.data     0.741473                       # mshr miss rate for overall accesses
system.l3.overall_mshr_miss_rate::total      0.741649                       # mshr miss rate for overall accesses
system.l3.ReadExReq_avg_mshr_miss_latency::cpu.data 227489.289492                       # average ReadExReq mshr miss latency
system.l3.ReadExReq_avg_mshr_miss_latency::total 227489.289492                       # average ReadExReq mshr miss latency
system.l3.ReadSharedReq_avg_mshr_miss_latency::cpu.inst 164819.718310                       # average ReadSharedReq mshr miss latency
system.l3.ReadSharedReq_avg_mshr_miss_latency::cpu.data 365338.213672                       # average ReadSharedReq mshr miss latency
system.l3.ReadSharedReq_avg_mshr_miss_latency::total 365116.712460                       # average ReadSharedReq mshr miss latency
system.l3.demand_avg_mshr_miss_latency::cpu.inst 164819.718310                       # average overall mshr miss latency
system.l3.demand_avg_mshr_miss_latency::cpu.data 342618.685364                       # average overall mshr miss latency
system.l3.demand_avg_mshr_miss_latency::total 342454.621543                       # average overall mshr miss latency
system.l3.overall_avg_mshr_miss_latency::cpu.inst 164819.718310                       # average overall mshr miss latency
system.l3.overall_avg_mshr_miss_latency::cpu.data 342618.685364                       # average overall mshr miss latency
system.l3.overall_avg_mshr_miss_latency::total 342454.621543                       # average overall mshr miss latency
system.l3.replacements                         723257                       # number of replacements
system.membus.snoop_filter.tot_requests        765420                       # Total number of requests made to the snoop filter.
system.membus.snoop_filter.hit_single_requests       380700                       # Number of requests hitting in the snoop filter with a single holder of the requested data.
system.membus.snoop_filter.hit_multi_requests            0                       # Number of requests hitting in the snoop filter with multiple (>1) holders of the requested data.
system.membus.snoop_filter.tot_snoops               0                       # Total number of snoops made to the snoop filter.
system.membus.snoop_filter.hit_single_snoops            0                       # Number of snoops hitting in the snoop filter with a single holder of the requested data.
system.membus.snoop_filter.hit_multi_snoops            0                       # Number of snoops hitting in the snoop filter with multiple (>1) holders of the requested data.
system.membus.pwrStateResidencyTicks::UNDEFINED 1135213164000                       # Cumulative time (in ticks) in various power states
system.membus.trans_dist::ReadResp             321371                       # Transaction distribution
system.membus.trans_dist::WritebackDirty       354888                       # Transaction distribution
system.membus.trans_dist::CleanEvict            11411                       # Transaction distribution
system.membus.trans_dist::ReadExReq             63349                       # Transaction distribution
system.membus.trans_dist::ReadExResp            63349                       # Transaction distribution
system.membus.trans_dist::ReadSharedReq        321371                       # Transaction distribution
system.membus.pkt_count_system.l3.mem_side::system.mem_ctrls.port      1135739                       # Packet count per connected master and slave (bytes)
system.membus.pkt_count_system.l3.mem_side::total      1135739                       # Packet count per connected master and slave (bytes)
system.membus.pkt_count::total                1135739                       # Packet count per connected master and slave (bytes)
system.membus.pkt_size_system.l3.mem_side::system.mem_ctrls.port     47334912                       # Cumulative packet size per connected master and slave (bytes)
system.membus.pkt_size_system.l3.mem_side::total     47334912                       # Cumulative packet size per connected master and slave (bytes)
system.membus.pkt_size::total                47334912                       # Cumulative packet size per connected master and slave (bytes)
system.membus.snoops                                0                       # Total snoops (count)
system.membus.snoopTraffic                          0                       # Total snoop traffic (bytes)
system.membus.snoop_fanout::samples            384720                       # Request fanout histogram
system.membus.snoop_fanout::mean                    0                       # Request fanout histogram
system.membus.snoop_fanout::stdev                   0                       # Request fanout histogram
system.membus.snoop_fanout::underflows              0      0.00%      0.00% # Request fanout histogram
system.membus.snoop_fanout::0                  384720    100.00%    100.00% # Request fanout histogram
system.membus.snoop_fanout::1                       0      0.00%    100.00% # Request fanout histogram
system.membus.snoop_fanout::overflows               0      0.00%    100.00% # Request fanout histogram
system.membus.snoop_fanout::min_value               0                       # Request fanout histogram
system.membus.snoop_fanout::max_value               0                       # Request fanout histogram
system.membus.snoop_fanout::total              384720                       # Request fanout histogram
system.membus.reqLayer2.occupancy          2184974500                       # Layer occupancy (ticks)
system.membus.reqLayer2.utilization               0.2                       # Layer utilization (%)
system.membus.respLayer1.occupancy         1923602000                       # Layer occupancy (ticks)
system.membus.respLayer1.utilization              0.2                       # Layer utilization (%)
system.tol2bus.snoop_filter.tot_requests      1490036                       # Total number of requests made to the snoop filter.
system.tol2bus.snoop_filter.hit_single_requests       807068                       # Number of requests hitting in the snoop filter with a single holder of the requested data.
system.tol2bus.snoop_filter.hit_multi_requests            0                       # Number of requests hitting in the snoop filter with multiple (>1) holders of the requested data.
system.tol2bus.snoop_filter.tot_snoops         368735                       # Total number of snoops made to the snoop filter.
system.tol2bus.snoop_filter.hit_single_snoops       368735                       # Number of snoops hitting in the snoop filter with a single holder of the requested data.
system.tol2bus.snoop_filter.hit_multi_snoops            0                       # Number of snoops hitting in the snoop filter with multiple (>1) holders of the requested data.
system.tol2bus.pwrStateResidencyTicks::UNDEFINED 1135213164000                       # Cumulative time (in ticks) in various power states
system.tol2bus.trans_dist::ReadResp            616456                       # Transaction distribution
system.tol2bus.trans_dist::WritebackDirty      1516879                       # Transaction distribution
system.tol2bus.trans_dist::WritebackClean           49                       # Transaction distribution
system.tol2bus.trans_dist::CleanEvict          405273                       # Transaction distribution
system.tol2bus.trans_dist::UpgradeReq          124919                       # Transaction distribution
system.tol2bus.trans_dist::UpgradeResp         124919                       # Transaction distribution
system.tol2bus.trans_dist::ReadExReq            66512                       # Transaction distribution
system.tol2bus.trans_dist::ReadExResp           66512                       # Transaction distribution
system.tol2bus.trans_dist::ReadCleanReq           356                       # Transaction distribution
system.tol2bus.trans_dist::ReadSharedReq       616100                       # Transaction distribution
system.tol2bus.pkt_count_system.cpu.icache.mem_side::system.l2.cpu_side          761                       # Packet count per connected master and slave (bytes)
system.tol2bus.pkt_count_system.cpu.dcache.mem_side::system.l2.cpu_side      2297162                       # Packet count per connected master and slave (bytes)
system.tol2bus.pkt_count::total               2297923                       # Packet count per connected master and slave (bytes)
system.tol2bus.pkt_size_system.cpu.icache.mem_side::system.l2.cpu_side        25920                       # Cumulative packet size per connected master and slave (bytes)
system.tol2bus.pkt_size_system.cpu.dcache.mem_side::system.l2.cpu_side     85740352                       # Cumulative packet size per connected master and slave (bytes)
system.tol2bus.pkt_size::total               85766272                       # Cumulative packet size per connected master and slave (bytes)
system.tol2bus.snoops                         1240052                       # Total snoops (count)
system.tol2bus.snoopTraffic                  55027072                       # Total snoop traffic (bytes)
system.tol2bus.snoop_fanout::samples          2047939                       # Request fanout histogram
system.tol2bus.snoop_fanout::mean            0.180052                       # Request fanout histogram
system.tol2bus.snoop_fanout::stdev           0.384231                       # Request fanout histogram
system.tol2bus.snoop_fanout::underflows             0      0.00%      0.00% # Request fanout histogram
system.tol2bus.snoop_fanout::0                1679204     81.99%     81.99% # Request fanout histogram
system.tol2bus.snoop_fanout::1                 368735     18.01%    100.00% # Request fanout histogram
system.tol2bus.snoop_fanout::2                      0      0.00%    100.00% # Request fanout histogram
system.tol2bus.snoop_fanout::3                      0      0.00%    100.00% # Request fanout histogram
system.tol2bus.snoop_fanout::4                      0      0.00%    100.00% # Request fanout histogram
system.tol2bus.snoop_fanout::overflows              0      0.00%    100.00% # Request fanout histogram
system.tol2bus.snoop_fanout::min_value              0                       # Request fanout histogram
system.tol2bus.snoop_fanout::max_value              1                       # Request fanout histogram
system.tol2bus.snoop_fanout::total            2047939                       # Request fanout histogram
system.tol2bus.reqLayer0.occupancy         1402148000                       # Layer occupancy (ticks)
system.tol2bus.reqLayer0.utilization              0.1                       # Layer utilization (%)
system.tol2bus.respLayer0.occupancy            534000                       # Layer occupancy (ticks)
system.tol2bus.respLayer0.utilization             0.0                       # Layer utilization (%)
system.tol2bus.respLayer1.occupancy        1086377500                       # Layer occupancy (ticks)
system.tol2bus.respLayer1.utilization             0.1                       # Layer utilization (%)
system.tol3bus.pwrStateResidencyTicks::UNDEFINED 1135213164000                       # Cumulative time (in ticks) in various power states
system.tol3bus.trans_dist::ReadResp            455300                       # Transaction distribution
system.tol3bus.trans_dist::WritebackDirty       859797                       # Transaction distribution
system.tol3bus.trans_dist::CleanEvict          379879                       # Transaction distribution
system.tol3bus.trans_dist::ReadExReq            63436                       # Transaction distribution
system.tol3bus.trans_dist::ReadExResp           63436                       # Transaction distribution
system.tol3bus.trans_dist::ReadSharedReq       455300                       # Transaction distribution
system.tol3bus.pkt_count_system.l2.mem_side::system.l3.cpu_side      1553891                       # Packet count per connected master and slave (bytes)
system.tol3bus.pkt_size_system.l2.mem_side::system.l3.cpu_side     65513280                       # Cumulative packet size per connected master and slave (bytes)
system.tol3bus.snoops                          723257                       # Total snoops (count)
system.tol3bus.snoopTraffic                  22712832                       # Total snoop traffic (bytes)
system.tol3bus.snoop_fanout::samples          1758412                       # Request fanout histogram
system.tol3bus.snoop_fanout::mean            0.411313                       # Request fanout histogram
system.tol3bus.snoop_fanout::stdev           0.492072                       # Request fanout histogram
system.tol3bus.snoop_fanout::underflows             0      0.00%      0.00% # Request fanout histogram
system.tol3bus.snoop_fanout::0                1035155     58.87%     58.87% # Request fanout histogram
system.tol3bus.snoop_fanout::1                 723257     41.13%    100.00% # Request fanout histogram
system.tol3bus.snoop_fanout::overflows              0      0.00%    100.00% # Request fanout histogram
system.tol3bus.snoop_fanout::min_value              0                       # Request fanout histogram
system.tol3bus.snoop_fanout::max_value              1                       # Request fanout histogram
system.tol3bus.snoop_fanout::total            1758412                       # Request fanout histogram
system.tol3bus.reqLayer0.occupancy         1022486500                       # Layer occupancy (ticks)
system.tol3bus.reqLayer0.utilization              0.1                       # Layer utilization (%)
system.tol3bus.respLayer0.occupancy         778104000                       # Layer occupancy (ticks)
system.tol3bus.respLayer0.utilization             0.1                       # Layer utilization (%)

---------- End Simulation Statistics   ----------
